Version 4
SHEET 1 1136 680
WIRE 528 -96 336 -96
WIRE 272 -80 208 -80
WIRE 384 -64 336 -64
WIRE 384 -48 384 -64
WIRE 288 32 176 32
WIRE 288 48 288 32
WIRE 528 48 528 -96
WIRE 384 64 384 32
WIRE 384 64 320 64
WIRE 432 64 384 64
WIRE 208 80 208 -80
WIRE 256 80 208 80
WIRE 336 96 320 96
WIRE 432 96 432 64
WIRE 432 176 384 176
WIRE 176 192 176 32
WIRE 384 208 384 176
WIRE 464 208 384 208
WIRE 528 208 528 128
WIRE 528 208 464 208
WIRE 464 240 464 208
WIRE 288 352 192 352
WIRE 400 352 368 352
WIRE 432 352 400 352
WIRE 544 352 512 352
WIRE 656 352 624 352
WIRE 400 368 400 352
WIRE 544 368 544 352
WIRE 656 368 656 352
WIRE 192 384 192 352
FLAG 176 272 0
FLAG 464 240 0
FLAG 192 464 0
FLAG 656 352 V_out
IOPIN 656 352 BiDir
FLAG 400 432 0
FLAG 544 432 0
FLAG 656 432 0
FLAG 288 112 0
FLAG 192 352 pwm
IOPIN 192 352 BiDir
FLAG 336 96 V_out
IOPIN 336 96 BiDir
SYMBOL voltage 176 176 R0
WINDOW 123 0 0 Left 0
WINDOW 39 0 0 Left 0
SYMATTR InstName V1
SYMATTR Value 5
SYMBOL voltage 528 32 R0
WINDOW 123 0 0 Left 0
WINDOW 39 0 0 Left 0
SYMATTR InstName V2
SYMATTR Value 10
SYMBOL res 416 80 R0
SYMATTR InstName R1
SYMATTR Value 0.1
SYMBOL res 368 -64 R0
SYMATTR InstName R2
SYMATTR Value 1
SYMBOL voltage 192 368 R0
WINDOW 3 -502 74 Left 2
WINDOW 123 0 0 Left 0
WINDOW 39 0 0 Left 0
SYMATTR InstName V3
SYMATTR Value PULSE(0 5 10ms 10ns 10ns 0.8ms 1ms)
SYMBOL res 384 336 R90
WINDOW 0 0 56 VBottom 2
WINDOW 3 32 56 VTop 2
SYMATTR InstName R3
SYMATTR Value 10k
SYMBOL cap 416 432 R180
WINDOW 0 24 56 Left 2
WINDOW 3 24 8 Left 2
SYMATTR InstName C1
SYMATTR Value 100n
SYMBOL cap 560 432 R180
WINDOW 0 24 56 Left 2
WINDOW 3 24 8 Left 2
SYMATTR InstName C2
SYMATTR Value 100n
SYMBOL res 528 336 R90
WINDOW 0 0 56 VBottom 2
WINDOW 3 32 56 VTop 2
SYMATTR InstName R4
SYMATTR Value 10k
SYMBOL cap 672 432 R180
WINDOW 0 24 56 Left 2
WINDOW 3 24 8 Left 2
SYMATTR InstName C3
SYMATTR Value 100n
SYMBOL res 640 336 R90
WINDOW 0 0 56 VBottom 2
WINDOW 3 32 56 VTop 2
SYMATTR InstName R5
SYMATTR Value 10k
SYMBOL OpAmps\\OP747 288 16 M0
SYMATTR InstName U2
SYMBOL AutoGenerated\\tip120 304 -80 R0
SYMATTR InstName U1
TEXT -312 488 Left 2 !.tran 100ms
