Version 4
SHEET 1 3028 1252
WIRE 1440 -160 1440 -240
WIRE 1376 -112 1360 -112
WIRE 1696 -96 1696 -192
WIRE 1360 -16 1360 -112
WIRE 1440 -16 1440 -64
WIRE 1504 -16 1440 -16
WIRE 1648 -16 1584 -16
WIRE 2768 -16 2640 -16
WIRE 1440 32 1440 -16
WIRE 1696 32 1696 0
WIRE 144 48 16 48
WIRE 2768 64 2768 -16
WIRE 1360 80 1360 -16
WIRE 1376 80 1360 80
WIRE 16 112 16 48
WIRE 48 112 16 112
WIRE 848 112 736 112
WIRE 144 128 144 48
WIRE 144 128 112 128
WIRE 176 128 144 128
WIRE 736 128 736 112
WIRE 48 144 -16 144
WIRE 944 160 800 160
WIRE 1696 160 1696 112
WIRE 1440 192 1440 128
WIRE 848 208 848 112
WIRE 2640 208 2640 -16
WIRE 2640 208 2528 208
WIRE 2752 208 2640 208
WIRE 800 224 800 160
WIRE 816 224 800 224
WIRE 944 240 944 160
WIRE 944 240 880 240
WIRE 1424 240 1232 240
WIRE 1584 240 1424 240
WIRE -16 256 -16 144
WIRE 32 256 -16 256
WIRE 128 256 32 256
WIRE 240 256 208 256
WIRE 368 256 320 256
WIRE 816 256 448 256
WIRE 32 288 32 256
WIRE 208 304 208 256
WIRE 320 304 320 256
WIRE 448 304 448 256
WIRE 1232 304 1232 240
WIRE 1584 384 1584 320
WIRE 2528 384 2528 304
WIRE 2560 384 2528 384
WIRE 2752 384 2752 304
WIRE 2752 384 2720 384
WIRE 32 400 32 368
WIRE 208 400 208 368
WIRE 208 400 32 400
WIRE 320 400 320 368
WIRE 320 400 208 400
WIRE 448 400 448 368
WIRE 448 400 320 400
WIRE 1424 400 1424 240
WIRE 1392 416 1360 416
WIRE 2400 416 2400 288
WIRE 2400 416 2336 416
WIRE 2880 416 2880 288
WIRE 2944 416 2880 416
WIRE 208 432 208 400
WIRE 1520 432 1456 432
WIRE 1392 448 1312 448
WIRE 2528 464 2528 384
WIRE 2752 464 2752 384
WIRE 1616 480 1584 480
WIRE 1232 512 1232 384
WIRE 1424 512 1424 464
WIRE 1424 512 1232 512
WIRE 1616 512 1616 480
WIRE 2400 544 2400 416
WIRE 2880 544 2880 416
WIRE 2640 560 2528 560
WIRE 2752 560 2640 560
WIRE 1360 592 1360 416
WIRE 1616 592 1360 592
WIRE 2640 608 2640 560
FLAG 208 432 0
FLAG 736 208 0
FLAG 848 272 0
FLAG 2768 144 0
FLAG 2640 608 0
FLAG 176 128 pwm
IOPIN 176 128 BiDir
FLAG 80 160 0
FLAG 736 112 V2
FLAG 80 96 V2
FLAG 944 240 V_out
IOPIN 944 240 BiDir
FLAG 2768 -16 V3
FLAG 1440 -240 V2
FLAG 1440 192 0
FLAG 1696 160 0
FLAG 1696 -192 V3
FLAG 1280 -16 V_out
IOPIN 1280 -16 BiDir
FLAG 2336 416 V3
FLAG 2944 416 0
FLAG 1312 448 V_out
IOPIN 1312 448 BiDir
FLAG 1232 512 0
FLAG 1616 592 0
SYMBOL res 224 240 R90
WINDOW 0 0 56 VBottom 2
WINDOW 3 32 56 VTop 2
SYMATTR InstName R3
SYMATTR Value 4.7k
SYMBOL voltage 32 272 R0
WINDOW 3 -128 224 Left 2
WINDOW 123 0 0 Left 0
WINDOW 39 0 0 Left 0
SYMATTR InstName V1
SYMATTR Value PULSE(0 5 10ms 10n 10n 0.9m 1ms)
SYMBOL cap 192 304 R0
SYMATTR InstName C1
SYMATTR Value 100n
SYMBOL res 336 240 R90
WINDOW 0 0 56 VBottom 2
WINDOW 3 32 56 VTop 2
SYMATTR InstName R1
SYMATTR Value 4.7k
SYMBOL cap 304 304 R0
SYMATTR InstName C2
SYMATTR Value 100n
SYMBOL res 464 240 R90
WINDOW 0 0 56 VBottom 2
WINDOW 3 32 56 VTop 2
SYMATTR InstName R2
SYMATTR Value 4.7k
SYMBOL cap 432 304 R0
SYMATTR InstName C3
SYMATTR Value 100n
SYMBOL voltage 736 112 R0
WINDOW 123 0 0 Left 0
WINDOW 39 0 0 Left 0
SYMATTR InstName V2
SYMATTR Value 10
SYMBOL OpAmps\\LT1014 848 176 R0
SYMATTR InstName U1
SYMBOL pmos 2480 208 R0
SYMATTR InstName M1
SYMATTR Value AO6407
SYMBOL ind 2544 400 R270
WINDOW 0 32 56 VTop 2
WINDOW 3 5 56 VBottom 2
SYMATTR InstName L1
SYMATTR Value 10µH
SYMBOL res 2736 368 R90
WINDOW 0 0 56 VBottom 2
WINDOW 3 32 56 VTop 2
SYMATTR InstName R5
SYMATTR Value 0.5
SYMBOL nmos 2480 464 R0
SYMATTR InstName M2
SYMATTR Value AO6408
SYMBOL voltage 2768 48 R0
WINDOW 123 0 0 Left 0
WINDOW 39 0 0 Left 0
SYMATTR InstName V3
SYMATTR Value 5
SYMBOL OpAmps\\LT1014 80 64 R0
SYMATTR InstName U2
SYMBOL nmos 2800 464 M0
SYMATTR InstName M3
SYMATTR Value AO6408
SYMBOL pmos 2800 208 M0
SYMATTR InstName M4
SYMATTR Value AO6407
SYMBOL npn 1376 -160 R0
SYMATTR InstName Q1
SYMATTR Value 2N2222
SYMBOL pnp 1376 128 M180
SYMATTR InstName Q2
SYMATTR Value 2N2907
SYMBOL res 1600 -32 R90
WINDOW 0 0 56 VBottom 2
WINDOW 3 32 56 VTop 2
SYMATTR InstName R7
SYMATTR Value 1k
SYMBOL nmos 1648 -96 R0
SYMATTR InstName M5
SYMATTR Value AO6408
SYMBOL res 1376 -32 R90
WINDOW 0 0 56 VBottom 2
WINDOW 3 32 56 VTop 2
SYMATTR InstName R8
SYMATTR Value 1k
SYMBOL res 1680 16 R0
SYMATTR InstName R9
SYMATTR Value 100
SYMBOL res 2496 272 R90
WINDOW 0 0 56 VBottom 2
WINDOW 3 32 56 VTop 2
SYMATTR InstName R4
SYMATTR Value 10k
SYMBOL res 2896 272 R90
WINDOW 0 0 56 VBottom 2
WINDOW 3 32 56 VTop 2
SYMATTR InstName R6
SYMATTR Value 10k
SYMBOL res 2896 528 R90
WINDOW 0 0 56 VBottom 2
WINDOW 3 32 56 VTop 2
SYMATTR InstName R15
SYMATTR Value 10k
SYMBOL res 2496 528 R90
WINDOW 0 0 56 VBottom 2
WINDOW 3 32 56 VTop 2
SYMATTR InstName R16
SYMATTR Value 10k
SYMBOL voltage 1232 288 R0
WINDOW 123 0 0 Left 0
WINDOW 39 0 0 Left 0
SYMATTR InstName V5
SYMATTR Value 5
SYMBOL OpAmps\\OP747 1424 368 R0
SYMATTR InstName U4
SYMBOL res 1568 224 R0
SYMATTR InstName R10
SYMATTR Value 10
SYMBOL npn 1520 384 R0
SYMATTR InstName Q3
SYMATTR Value 2N2222
SYMBOL res 1600 496 R0
SYMATTR InstName R11
SYMATTR Value 1
TEXT -98 516 Left 2 !.tran 100ms
