Version 4
SHEET 1 880 680
WIRE -32 -48 -128 -48
WIRE -32 -16 -32 -48
WIRE 16 64 -32 64
WIRE -32 80 -32 64
WIRE 16 96 16 64
WIRE 96 96 16 96
WIRE 320 112 240 112
WIRE 96 128 16 128
WIRE 96 160 64 160
WIRE -128 176 -128 -48
WIRE -32 176 -32 160
WIRE -32 176 -128 176
WIRE 16 176 16 128
WIRE 16 176 -32 176
WIRE -224 192 -224 160
WIRE 64 208 64 160
WIRE 64 288 64 272
FLAG -224 192 0
FLAG -224 80 5v
FLAG 320 112 Vout
FLAG 240 176 5v
FLAG 240 144 0
FLAG 240 80 0
FLAG 64 160 5v
FLAG 64 288 0
SYMBOL AutoGenerated\\INA283 160 128 R0
SYMATTR InstName U1
SYMBOL res -16 176 R180
WINDOW 0 36 76 Left 2
WINDOW 3 36 40 Left 2
SYMATTR InstName R1
SYMATTR Value 0.5m
SYMBOL voltage -224 64 R0
WINDOW 123 0 0 Left 0
WINDOW 39 0 0 Left 0
SYMATTR InstName V1
SYMATTR Value 5V
SYMBOL current -32 -16 R0
WINDOW 0 -45 0 Left 2
WINDOW 3 44 3 Left 2
WINDOW 123 46 41 Left 2
WINDOW 39 0 0 Left 0
SYMATTR InstName I1
SYMATTR Value SINE(0 1 100 0 0 0 0)
SYMATTR Value2 AC 0 0
SYMBOL cap 80 272 R180
WINDOW 0 24 56 Left 2
WINDOW 3 24 8 Left 2
SYMATTR InstName C1
SYMATTR Value 0.1µ
TEXT -258 312 Left 2 !.tran 10m
