Version 4
SHEET 1 880 712
WIRE 160 -16 160 -64
WIRE 480 176 432 176
WIRE 160 192 160 64
WIRE 304 192 160 192
WIRE 464 208 432 208
WIRE -48 224 -48 128
WIRE 160 224 160 192
WIRE 304 224 288 224
WIRE 496 240 432 240
WIRE 528 240 496 240
WIRE 496 304 496 240
WIRE 496 304 400 304
WIRE -48 336 -48 304
WIRE 160 336 160 304
WIRE 288 352 288 224
WIRE 320 352 288 352
WIRE 400 352 400 304
WIRE 288 368 288 352
WIRE 368 448 288 448
WIRE 464 448 464 208
WIRE 464 448 368 448
WIRE 368 496 368 448
FLAG -48 336 0
FLAG -48 128 Vcc
FLAG 160 -64 Vcc
FLAG 160 336 0
FLAG 528 240 Vout
FLAG 480 176 Vcc
FLAG 368 496 0
SYMBOL res 304 464 R180
WINDOW 0 36 76 Left 2
WINDOW 3 36 40 Left 2
SYMATTR InstName R2
SYMATTR Value 30K
SYMBOL res 304 368 R270
WINDOW 0 32 54 VTop 2
WINDOW 3 0 56 VBottom 2
SYMATTR InstName R3
SYMATTR Value 30K
SYMBOL voltage -48 208 R0
WINDOW 123 0 0 Left 0
WINDOW 39 0 0 Left 0
SYMATTR InstName V1
SYMATTR Value 5
SYMBOL res 144 -32 R0
SYMATTR InstName R4
SYMATTR Value 30k
SYMBOL res 144 208 R0
SYMATTR InstName R1
SYMATTR Value {RT}
SYMBOL AutoGenerated\\MCP6021 368 208 R0
SYMATTR InstName U1
TEXT -880 648 Left 2 ;NTC code from here: \nhttps://ez.analog.com/design-tools-and-calculators/f/q-a/103552/lt-spice-thermistor-model
TEXT -496 336 Left 2 !.param TK=273.15\n.param T25=25\n.param B=3694\n.param R25=10k\n.param RT=R25*exp(B*(1/(TEMP1+TK)-1/(T25+TK)))\n \n.step param TEMP1 1 50 1\n.op
